5mj6_ligand
                    3D
 Schrodinger Suite 2020-3.
 83 86  0  0  1  0            999 V2000
   29.1648    3.9570   72.2813 P   0  0  0  0  0  0
   29.0545    4.0925   74.1453 C   0  0  2  0  0  0
   29.2084    2.7536   74.8909 C   0  0  0  0  0  0
   29.0380    2.8330   76.4283 C   0  0  0  0  0  0
   28.9935    1.4758   77.1291 C   0  0  0  0  0  0
   28.1449    1.2916   78.2256 C   0  0  0  0  0  0
   28.0762    0.0508   78.8560 C   0  0  0  0  0  0
   28.8566   -1.0052   78.3897 C   0  0  0  0  0  0
   29.7181   -0.8275   77.3100 C   0  0  0  0  0  0
   29.7913    0.4153   76.6887 C   0  0  0  0  0  0
   27.6465    4.6523   74.3776 N   0  3  0  0  0  0
   28.1046    2.9790   71.8635 O   0  5  0  0  0  0
   29.1274    5.3465   71.7105 O   0  0  0  0  0  0
   30.8427    3.2230   71.9204 C   0  0  0  0  0  0
   30.8364    1.7747   71.3326 C   0  0  1  0  0  0
   31.7001    1.7195   70.0400 C   0  0  0  0  0  0
   31.8280    0.3454   69.3255 C   0  0  0  0  0  0
   30.5299   -0.2175   68.7413 C   0  0  0  0  0  0
   30.1876   -1.5523   68.9829 C   0  0  0  0  0  0
   29.1111   -2.1254   68.3138 C   0  0  0  0  0  0
   28.3814   -1.3663   67.4040 C   0  0  0  0  0  0
   28.6991   -0.0316   67.1741 C   0  0  0  0  0  0
   29.7532    0.5505   67.8656 C   0  0  0  0  0  0
   32.8999    0.3419   68.2365 C   0  0  0  0  0  0
   33.9211   -0.6120   68.2760 C   0  0  0  0  0  0
   34.8266   -0.7044   67.2247 C   0  0  0  0  0  0
   34.7127    0.1591   66.1365 C   0  0  0  0  0  0
   33.7141    1.1257   66.1004 C   0  0  0  0  0  0
   32.8229    1.2338   67.1592 C   0  0  0  0  0  0
   31.3029    0.7624   72.3973 C   0  0  0  0  0  0
   32.3172    0.9987   73.0492 O   0  0  0  0  0  0
   30.5923   -0.3655   72.5706 N   0  0  0  0  0  0
   30.9546   -1.4015   73.5537 C   0  0  1  0  0  0
   29.7310   -2.2983   73.8714 C   0  0  0  0  0  0
   29.0849   -3.0504   72.7131 C   0  0  0  0  0  0
   27.7385   -2.8040   72.3774 C   0  0  0  0  0  0
   27.1420   -3.5049   71.3388 C   0  0  0  0  0  0
   27.8572   -4.4611   70.6317 C   0  0  0  0  0  0
   29.1854   -4.7129   70.9457 C   0  0  0  0  0  0
   29.8030   -4.0166   71.9748 C   0  0  0  0  0  0
   32.2548   -2.2027   73.2739 C   0  0  0  0  0  0
   32.8469   -2.0907   72.0816 N   0  0  0  0  0  0
   32.7233   -2.9086   74.1633 O   0  0  0  0  0  0
   29.7189    4.8556   74.5458 H   0  0  0  0  0  0
   30.1986    2.3611   74.6637 H   0  0  0  0  0  0
   28.4951    2.0338   74.4887 H   0  0  0  0  0  0
   28.1101    3.3543   76.6603 H   0  0  0  0  0  0
   29.8428    3.4265   76.8645 H   0  0  0  0  0  0
   27.5287    2.1038   78.5848 H   0  0  0  0  0  0
   27.4145   -0.0929   79.6979 H   0  0  0  0  0  0
   28.7971   -1.9678   78.8750 H   0  0  0  0  0  0
   30.3291   -1.6469   76.9603 H   0  0  0  0  0  0
   30.4735    0.5546   75.8675 H   0  0  0  0  0  0
   27.4277    4.7489   75.3660 H   0  0  0  0  0  0
   27.6012    5.5899   73.9870 H   0  0  0  0  0  0
   26.9312    4.0843   73.9418 H   0  0  0  0  0  0
   31.4682    3.3203   72.8002 H   0  0  0  0  0  0
   31.3212    3.8931   71.2127 H   0  0  0  0  0  0
   29.8297    1.4987   71.0231 H   0  0  0  0  0  0
   32.7032    2.0631   70.2932 H   0  0  0  0  0  0
   31.3212    2.4594   69.3336 H   0  0  0  0  0  0
   32.1672   -0.3554   70.0859 H   0  0  0  0  0  0
   30.7768   -2.1617   69.6528 H   0  0  0  0  0  0
   28.8547   -3.1592   68.4814 H   0  0  0  0  0  0
   27.5440   -1.8027   66.8828 H   0  0  0  0  0  0
   28.1256    0.5527   66.4692 H   0  0  0  0  0  0
   29.9916    1.5837   67.6676 H   0  0  0  0  0  0
   33.9961   -1.3078   69.0988 H   0  0  0  0  0  0
   35.6003   -1.4575   67.2462 H   0  0  0  0  0  0
   35.4007    0.0841   65.3082 H   0  0  0  0  0  0
   33.6268    1.7891   65.2552 H   0  0  0  0  0  0
   32.0543    1.9897   67.1091 H   0  0  0  0  0  0
   29.7611   -0.5352   72.0219 H   0  0  0  0  0  0
   31.1883   -0.8807   74.4805 H   0  0  0  0  0  0
   28.9677   -1.6809   74.3502 H   0  0  0  0  0  0
   30.0003   -3.0335   74.6284 H   0  0  0  0  0  0
   27.1637   -2.0787   72.9331 H   0  0  0  0  0  0
   26.1137   -3.3099   71.0820 H   0  0  0  0  0  0
   27.3807   -5.0026   69.8283 H   0  0  0  0  0  0
   29.7394   -5.4565   70.3920 H   0  0  0  0  0  0
   30.8296   -4.2450   72.2141 H   0  0  0  0  0  0
   33.6991   -2.5971   71.8941 H   0  0  0  0  0  0
   32.4472   -1.4935   71.3738 H   0  0  0  0  0  0
  1 12  1  0  0  0
  1 13  2  0  0  0
  1  2  1  0  0  0
  1 14  1  0  0  0
  2  3  1  0  0  0
  2 11  1  0  0  0
  2 44  1  0  0  0
  3  4  1  0  0  0
  3 45  1  0  0  0
  3 46  1  0  0  0
  4  5  1  0  0  0
  4 47  1  0  0  0
  4 48  1  0  0  0
  5  6  2  0  0  0
  5 10  1  0  0  0
  6  7  1  0  0  0
  6 49  1  0  0  0
  7  8  2  0  0  0
  7 50  1  0  0  0
  8  9  1  0  0  0
  8 51  1  0  0  0
  9 10  2  0  0  0
  9 52  1  0  0  0
 10 53  1  0  0  0
 11 54  1  0  0  0
 11 55  1  0  0  0
 11 56  1  0  0  0
 14 15  1  0  0  0
 14 57  1  0  0  0
 14 58  1  0  0  0
 15 16  1  0  0  0
 15 30  1  0  0  0
 15 59  1  0  0  0
 16 17  1  0  0  0
 16 60  1  0  0  0
 16 61  1  0  0  0
 17 18  1  0  0  0
 17 24  1  0  0  0
 17 62  1  0  0  0
 18 19  2  0  0  0
 18 23  1  0  0  0
 19 20  1  0  0  0
 19 63  1  0  0  0
 20 21  2  0  0  0
 20 64  1  0  0  0
 21 22  1  0  0  0
 21 65  1  0  0  0
 22 23  2  0  0  0
 22 66  1  0  0  0
 23 67  1  0  0  0
 24 25  2  0  0  0
 24 29  1  0  0  0
 25 26  1  0  0  0
 25 68  1  0  0  0
 26 27  2  0  0  0
 26 69  1  0  0  0
 27 28  1  0  0  0
 27 70  1  0  0  0
 28 29  2  0  0  0
 28 71  1  0  0  0
 29 72  1  0  0  0
 30 31  2  0  0  0
 30 32  1  0  0  0
 32 33  1  0  0  0
 32 73  1  0  0  0
 33 34  1  0  0  0
 33 41  1  0  0  0
 33 74  1  0  0  0
 34 35  1  0  0  0
 34 75  1  0  0  0
 34 76  1  0  0  0
 35 36  2  0  0  0
 35 40  1  0  0  0
 36 37  1  0  0  0
 36 77  1  0  0  0
 37 38  2  0  0  0
 37 78  1  0  0  0
 38 39  1  0  0  0
 38 79  1  0  0  0
 39 40  2  0  0  0
 39 80  1  0  0  0
 40 81  1  0  0  0
 41 42  1  0  0  0
 41 43  2  0  0  0
 42 82  1  0  0  0
 42 83  1  0  0  0
M  CHG  2  11   1  12  -1
M  END
> <i_m_stars>
0

> <s_m_entry_id>
48

> <s_m_entry_name>
Structure48

> <b_ppw_prepared>
1

> <s_ppw_prepared_with_version>
2020-3

> <s_ppw_group_name_backup>
5MJ6-homocombo-prep_copy1

> <s_ppw_entry_id_backup>
28

> <b_ppw_assigned_bond_orders>
1

> <b_ppw_added_hydrogens>
1

> <b_ppw_treated_metals>
1

> <b_ppw_created_disulfur>
1

> <b_ppw_deleted_far_waters>
1

> <s_psp_EXECUTE_FUNCTION_Input_Structure_Hash>
be2cfe1b96a99193859aa6111a329021fca4cfc5586c512eba3e96ac

> <s_ppw_het_states>
eJztljFvwjAQhf+KlbWQ+uw49sHWqWvVETEg2qkUOqRDhfjvjX2J80hgrlQFCenl43zvnLNPnAsqVmrTfqgi7xbKbLcLtWm/utQLdb50onhtds27+no/7g7NzypCrT72u8Pj5+mwVs/Lp9PxTe1P38em/XGtXlbqwRQxV2HAoG7TxfxRe9ABNA86aNAE2oC2oCvQDjT4BvAN4BvAl8GXwZfBl8GXwZfBl8GXwZfBlwdfozVoAm1AW9AVaAe6Bu1BB9DgS+BL4EvgS+BL4EvgS+BL4EvJNz70p6BrBPVN71CIB/AK+RtRDMhLVJig2POMgkThQpYoPaCk5aCZEXIQRYIMICPIwkIrqIKoKufKUVIEQxEsjvHUXaPU4IykCIYiWIqIx3KMYNssdcUDa0YIXiFLqYyOTlANC6UdDB1in3PlKJbq9RQNLyf93B36jEiQyQuT7q5AjrI5V45yguop8rDQCwqAgiCeIKoBSfU0NE20XB0zQg6iZENkAMmGyMJC2RDBy0lacuWoWhBsqEehG+JEpbPRIA7xpe8exoM8Rd2d5CZNcl2kq/vXEzxfpNZ3mR/mET6P8HmEzyP8P45wXYa0Mk7wqmzvQH3rn3gwd+e37ef39vILlF9/OA==

> <b_ppw_ran_protassign>
1

> <r_i_Potential_Energy-OPLS3e>
-4118.90694999345

> <r_i_RMS_Derivative-OPLS3e>
0.107617596001283

> <r_i_Max_Derivative-OPLS3e>
6.86166725373041

> <r_i_Stretch_Energy-OPLS3e>
375.441228543297

> <r_i_Bend_Energy-OPLS3e>
1635.65189195002

> <r_i_LJ-14_Energy-OPLS3e>
4260.59735064271

> <r_i_El-14_Energy-OPLS3e>
1840.86629290539

> <r_i_Van_der_Waals_Energy-OPLS3e>
-8894.44340606505

> <r_i_Electrostatic_Energy-OPLS3e>
-5162.78164096476

> <r_i_Dihedral_Energy-OPLS3e>
1612.84486538321

> <r_i_target_temperature>
298

> <b_ppw_ran_impref>
1

> <s_m_subgroup_title>
Prepped Proteins

> <s_m_subgroupid>
Prepped Proteins_copy1

> <b_m_subgroup_collapsed>
0

$$$$
